4
Coordinates from ORCA-job C-F-F-H_radical_opt E -238.174507744588
  C      -0.001000      0.071000      0.318000
  F       1.156000     -0.568000     -0.097000
  F      -1.134000     -0.601000     -0.097000
  H      -0.021000      1.098000     -0.124000
4
Coordinates from ORCA-job C-F-F-H_radical_opt E -238.181963863398
  C      -0.001631      0.077581      0.276060
  F       1.114129     -0.571423     -0.085105
  F      -1.094266     -0.607102     -0.084873
  H      -0.018233      1.100944     -0.106082
4
Coordinates from ORCA-job C-F-F-H_radical_opt E -238.182980055741
  C      -0.001963      0.077176      0.244178
  F       1.095320     -0.576288     -0.075413
  F      -1.076497     -0.613573     -0.075030
  H      -0.016861      1.112685     -0.093735
4
Coordinates from ORCA-job C-F-F-H_radical_opt E -238.183018665333
  C      -0.001764      0.077790      0.242930
  F       1.100246     -0.577642     -0.075049
  F      -1.080937     -0.614173     -0.074737
  H      -0.017545      1.114024     -0.093144
4
Coordinates from ORCA-job C-F-F-H_radical_opt E -238.183019460220
  C      -0.001587      0.078179      0.242442
  F       1.099984     -0.578151     -0.074907
  F      -1.080528     -0.614281     -0.074653
  H      -0.017870      1.114254     -0.092883
4
Coordinates from ORCA-job C-F-F-H_radical_opt E -238.183019582810
  C      -0.001412      0.078346      0.242303
  F       1.099869     -0.578467     -0.074851
  F      -1.080333     -0.614307     -0.074653
  H      -0.018124      1.114428     -0.092799
