# Formula: C-Br-Cl-Cl_radical

! UKS NORI TightSCF PBE0 aug-cc-PVTZ-J xyzfile opt NOPOP
%base "C-Br-Cl-Cl_radical_opt" 

* xyz 0 2
C	-0.067	0.016	0.451
Br	1.779	-0.121	-0.135
Cl	-0.935	-1.414	-0.156
Cl	-0.777	1.519	-0.160
*

$new_job
! UKS NORI PBE0 aug-cc-PVTZ-J NBO
%base "C-Br-Cl-Cl_radical_EPR"

*xyzfile 0 2

%EPRNMR
	GTENSOR		TRUE
	NUCLEI		= ALL C  {AISO, ADIP, AORB}
	NUCLEI		= ALL H  {AISO, ADIP, AORB}
	NUCLEI		= ALL F  {AISO, ADIP, AORB}
	NUCLEI		= ALL Cl {AISO, ADIP, AORB}
	NUCLEI		= ALL Br {AISO, ADIP, AORB}
	NUCLEI		= ALL I  {AISO, ADIP, AORB}
END

%NBO
	NBOKEYLIST = "$NBO NBO NPA AONBO=C PRINT=1 ARCHIVE $END"
END
