# Formula: C-Br-F-H_radical

! UKS NORI TightSCF PBE0 aug-cc-PVTZ-J xyzfile opt NOPOP
%base "C-Br-F-H_radical_opt" 

* xyz 0 2
C	-0.214	0.118	0.351
Br	1.650	-0.205	-0.071
F	-0.924	-0.973	-0.119
H	-0.511	1.060	-0.162
*

$new_job
! UKS NORI PBE0 aug-cc-PVTZ-J NBO
%base "C-Br-F-H_radical_EPR"

*xyzfile 0 2

%EPRNMR
	GTENSOR		TRUE
	NUCLEI		= ALL C  {AISO, ADIP, AORB}
	NUCLEI		= ALL H  {AISO, ADIP, AORB}
	NUCLEI		= ALL F  {AISO, ADIP, AORB}
	NUCLEI		= ALL Cl {AISO, ADIP, AORB}
	NUCLEI		= ALL Br {AISO, ADIP, AORB}
	NUCLEI		= ALL I  {AISO, ADIP, AORB}
END

%NBO
	NBOKEYLIST = "$NBO NBO NPA AONBO=C PRINT=1 ARCHIVE $END"
END
