# Formula: C-Br-Br-Cl_radical

! UKS NORI TightSCF PBE0 aug-cc-PVTZ-J xyzfile opt NOPOP
%base "C-Br-Br-Cl_radical_opt" 

* xyz 0 2
C	-0.007	0.071	0.441
Br	-1.423	-1.117	-0.138
Br	1.681	-0.670	-0.140
Cl	-0.251	1.716	-0.163
*

$new_job
! UKS NORI PBE0 aug-cc-PVTZ-J NBO
%base "C-Br-Br-Cl_radical_EPR"

*xyzfile 0 2

%EPRNMR
	GTENSOR		TRUE
	NUCLEI		= ALL C  {AISO, ADIP, AORB}
	NUCLEI		= ALL H  {AISO, ADIP, AORB}
	NUCLEI		= ALL F  {AISO, ADIP, AORB}
	NUCLEI		= ALL Cl {AISO, ADIP, AORB}
	NUCLEI		= ALL Br {AISO, ADIP, AORB}
	NUCLEI		= ALL I  {AISO, ADIP, AORB}
END

%NBO
	NBOKEYLIST = "$NBO NBO NPA AONBO=C PRINT=1 ARCHIVE $END"
END
