# Formula: C-Br-Br-F_radical

! UKS NORI TightSCF PBE0 aug-cc-PVTZ-J xyzfile opt NOPOP
%base "C-Br-Br-F_radical_opt" 

* xyz 0 2
C	-0.004	0.186	0.456
Br	1.574	-0.786	-0.125
Br	-1.565	-0.795	-0.127
F	-0.005	1.395	-0.203
*

$new_job
! UKS NORI PBE0 aug-cc-PVTZ-J NBO
%base "C-Br-Br-F_radical_EPR"

*xyzfile 0 2

%EPRNMR
	GTENSOR		TRUE
	NUCLEI		= ALL C  {AISO, ADIP, AORB}
	NUCLEI		= ALL H  {AISO, ADIP, AORB}
	NUCLEI		= ALL F  {AISO, ADIP, AORB}
	NUCLEI		= ALL Cl {AISO, ADIP, AORB}
	NUCLEI		= ALL Br {AISO, ADIP, AORB}
	NUCLEI		= ALL I  {AISO, ADIP, AORB}
END

%NBO
	NBOKEYLIST = "$NBO NBO NPA AONBO=C PRINT=1 ARCHIVE $END"
END
