# Formula: C-Cl-F-H_radical

! UKS NORI TightSCF PBE0 aug-cc-PVTZ-J xyzfile opt NOPOP
%base "C-Cl-F-H_radical_opt" 

* xyz 0 2
C	-0.136	0.105	0.327
Cl	1.565	-0.211	-0.079
F	-0.928	-0.941	-0.105
H	-0.501	1.048	-0.143
*

$new_job
! UKS NORI PBE0 aug-cc-PVTZ-J NBO
%base "C-Cl-F-H_radical_EPR"

*xyzfile 0 2

%EPRNMR
	GTENSOR		TRUE
	NUCLEI		= ALL C  {AISO, ADIP, AORB}
	NUCLEI		= ALL H  {AISO, ADIP, AORB}
	NUCLEI		= ALL F  {AISO, ADIP, AORB}
	NUCLEI		= ALL Cl {AISO, ADIP, AORB}
	NUCLEI		= ALL Br {AISO, ADIP, AORB}
	NUCLEI		= ALL I  {AISO, ADIP, AORB}
END

%NBO
	NBOKEYLIST = "$NBO NBO NPA AONBO=C PRINT=1 ARCHIVE $END"
END
