# Formula: C-Cl-Cl-Cl_radical

! UKS NORI TightSCF PBE0 aug-cc-PVTZ-J xyzfile opt NOPOP
%base "C-Cl-Cl-Cl_radical_opt" 

* xyz 0 2
C	0.014	-0.015	0.434
Cl	-1.082	-1.279	-0.145
Cl	1.672	-0.260	-0.148
Cl	-0.603	1.554	-0.140
*

$new_job
! UKS NORI PBE0 aug-cc-PVTZ-J NBO
%base "C-Cl-Cl-Cl_radical_EPR"

*xyzfile 0 2

%EPRNMR
	GTENSOR		TRUE
	NUCLEI		= ALL C  {AISO, ADIP, AORB}
	NUCLEI		= ALL H  {AISO, ADIP, AORB}
	NUCLEI		= ALL F  {AISO, ADIP, AORB}
	NUCLEI		= ALL Cl {AISO, ADIP, AORB}
	NUCLEI		= ALL Br {AISO, ADIP, AORB}
	NUCLEI		= ALL I  {AISO, ADIP, AORB}
END

%NBO
	NBOKEYLIST = "$NBO NBO NPA AONBO=C PRINT=1 ARCHIVE $END"
END
