# Formula: C-Cl-F-H_radical

! UKS NORI TightSCF PBE0 aug-cc-PVTZ-J xyzfile opt NOPOP
%base "C-Cl-F-H_radical_opt" 

* xyz 0 2
C	-0.152	0.117	0.331
Cl	1.551	-0.183	-0.077
F	-0.874	-0.977	-0.105
H	-0.525	1.043	-0.149
*

$new_job
! UKS NORI PBE0 aug-cc-PVTZ-J NBO
%base "C-Cl-F-H_radical_EPR"

*xyzfile 0 2

%EPRNMR
	GTENSOR		TRUE
	NUCLEI		= ALL C  {AISO, ADIP, AORB}
	NUCLEI		= ALL H  {AISO, ADIP, AORB}
	NUCLEI		= ALL F  {AISO, ADIP, AORB}
	NUCLEI		= ALL Cl {AISO, ADIP, AORB}
	NUCLEI		= ALL Br {AISO, ADIP, AORB}
	NUCLEI		= ALL I  {AISO, ADIP, AORB}
END

%NBO
	NBOKEYLIST = "$NBO NBO NPA AONBO=C PRINT=1 ARCHIVE $END"
END
