# Formula: C-F-F-F_radical

! UKS NORI TightSCF PBE0 aug-cc-PVTZ-J xyzfile opt NOPOP
%base "C-F-F-F_radical_opt" 

* xyz 0 2
C	0.008	-0.002	0.339
F	-0.679	-1.111	-0.113
F	-0.642	1.132	-0.112
F	1.313	-0.019	-0.115
*

$new_job
! UKS NORI PBE0 aug-cc-PVTZ-J NBO
%base "C-F-F-F_radical_EPR"

*xyzfile 0 2

%EPRNMR
	GTENSOR		TRUE
	NUCLEI		= ALL C  {AISO, ADIP, AORB}
	NUCLEI		= ALL H  {AISO, ADIP, AORB}
	NUCLEI		= ALL F  {AISO, ADIP, AORB}
	NUCLEI		= ALL Cl {AISO, ADIP, AORB}
	NUCLEI		= ALL Br {AISO, ADIP, AORB}
	NUCLEI		= ALL I  {AISO, ADIP, AORB}
END

%NBO
	NBOKEYLIST = "$NBO NBO NPA AONBO=C PRINT=1 ARCHIVE $END"
END
