# Formula: C-F-F-F_radical

! UKS NORI TightSCF PBE0 aug-cc-PVTZ-J xyzfile opt NOPOP
%base "C-F-F-F_radical_opt" 

* xyz 0 2
C	-0.001	-0.016	0.359
F	-0.756	-1.062	-0.123
F	-0.535	1.176	-0.116
F	1.293	-0.098	-0.120
*

$new_job
! UKS NORI PBE0 aug-cc-PVTZ-J NBO
%base "C-F-F-F_radical_EPR"

*xyzfile 0 2

%EPRNMR
	GTENSOR		TRUE
	NUCLEI		= ALL C  {AISO, ADIP, AORB}
	NUCLEI		= ALL H  {AISO, ADIP, AORB}
	NUCLEI		= ALL F  {AISO, ADIP, AORB}
	NUCLEI		= ALL Cl {AISO, ADIP, AORB}
	NUCLEI		= ALL Br {AISO, ADIP, AORB}
	NUCLEI		= ALL I  {AISO, ADIP, AORB}
END

%NBO
	NBOKEYLIST = "$NBO NBO NPA AONBO=C PRINT=1 ARCHIVE $END"
END
