# Formula: C-F-H-H_radical

! UKS NORI TightSCF PBE0 aug-cc-PVTZ-J xyzfile opt NOPOP
%base "C-F-H-H_radical_opt" 

* xyz 0 2
C	-0.072	0.010	0.303
F	1.246	-0.060	-0.085
H	-0.630	-0.862	-0.108
H	-0.544	0.913	-0.110
*

$new_job
! UKS NORI PBE0 aug-cc-PVTZ-J NBO
%base "C-F-H-H_radical_EPR"

*xyzfile 0 2

%EPRNMR
	GTENSOR		TRUE
	NUCLEI		= ALL C  {AISO, ADIP, AORB}
	NUCLEI		= ALL H  {AISO, ADIP, AORB}
	NUCLEI		= ALL F  {AISO, ADIP, AORB}
	NUCLEI		= ALL Cl {AISO, ADIP, AORB}
	NUCLEI		= ALL Br {AISO, ADIP, AORB}
	NUCLEI		= ALL I  {AISO, ADIP, AORB}
END

%NBO
	NBOKEYLIST = "$NBO NBO NPA AONBO=C PRINT=1 ARCHIVE $END"
END
