# Formula: C-F-F-H_radical

! UKS NORI TightSCF PBE0 aug-cc-PVTZ-J xyzfile opt NOPOP
%base "C-F-F-H_radical_opt" 

* xyz 0 2
C	0.001	0.078	0.283
F	1.188	-0.516	-0.087
F	-1.086	-0.673	-0.085
H	-0.103	1.111	-0.112
*

$new_job
! UKS NORI PBE0 aug-cc-PVTZ-J NBO
%base "C-F-F-H_radical_EPR"

*xyzfile 0 2

%EPRNMR
	GTENSOR		TRUE
	NUCLEI		= ALL C  {AISO, ADIP, AORB}
	NUCLEI		= ALL H  {AISO, ADIP, AORB}
	NUCLEI		= ALL F  {AISO, ADIP, AORB}
	NUCLEI		= ALL Cl {AISO, ADIP, AORB}
	NUCLEI		= ALL Br {AISO, ADIP, AORB}
	NUCLEI		= ALL I  {AISO, ADIP, AORB}
END

%NBO
	NBOKEYLIST = "$NBO NBO NPA AONBO=C PRINT=1 ARCHIVE $END"
END
