# Formula: C-H-H-H_radical

! UKS NORI TightSCF PBE0 aug-cc-PVTZ-J xyzfile opt NOPOP
%base "C-H-H-H_radical_opt" 

* xyz 0 2
C	0.012	-0.006	0.295
H	1.029	-0.216	-0.102
H	-0.715	-0.757	-0.097
H	-0.327	0.979	-0.096
*

$new_job
! UKS NORI PBE0 aug-cc-PVTZ-J NBO
%base "C-H-H-H_radical_EPR"

*xyzfile 0 2

%EPRNMR
	GTENSOR		TRUE
	NUCLEI		= ALL C  {AISO, ADIP, AORB}
	NUCLEI		= ALL H  {AISO, ADIP, AORB}
	NUCLEI		= ALL F  {AISO, ADIP, AORB}
	NUCLEI		= ALL Cl {AISO, ADIP, AORB}
	NUCLEI		= ALL Br {AISO, ADIP, AORB}
	NUCLEI		= ALL I  {AISO, ADIP, AORB}
END

%NBO
	NBOKEYLIST = "$NBO NBO NPA AONBO=C PRINT=1 ARCHIVE $END"
END
