# Formula: C-H-H-H_radical

! UKS NORI TightSCF PBE0 aug-cc-PVTZ-J xyzfile opt NOPOP
%base "C-H-H-H_radical_opt" 

* xyz 0 2
C	0.006	-0.005	0.286
H	-0.885	-0.551	-0.095
H	0.948	-0.473	-0.097
H	-0.069	1.028	-0.094
*

$new_job
! UKS NORI PBE0 aug-cc-PVTZ-J NBO
%base "C-H-H-H_radical_EPR"

*xyzfile 0 2

%EPRNMR
	GTENSOR		TRUE
	NUCLEI		= ALL C  {AISO, ADIP, AORB}
	NUCLEI		= ALL H  {AISO, ADIP, AORB}
	NUCLEI		= ALL F  {AISO, ADIP, AORB}
	NUCLEI		= ALL Cl {AISO, ADIP, AORB}
	NUCLEI		= ALL Br {AISO, ADIP, AORB}
	NUCLEI		= ALL I  {AISO, ADIP, AORB}
END

%NBO
	NBOKEYLIST = "$NBO NBO NPA AONBO=C PRINT=1 ARCHIVE $END"
END
