# Formula: C-I-I-Br_radical

! UKS NORI TightSCF PBE0 aug-cc-PVTZ-J xyzfile opt NOPOP
%base "C-I-I-Br_radical_opt" 

* xyz 0 2
C	0.008	0.070	0.517
I	-1.612	-1.145	-0.161
I	1.830	-0.789	-0.167
Br	-0.226	1.864	-0.189
*

$new_job
! UKS NORI PBE0 aug-cc-PVTZ-J NBO
%base "C-I-I-Br_radical_EPR"

*xyzfile 0 2

%EPRNMR
	GTENSOR		TRUE
	NUCLEI		= ALL C  {AISO, ADIP, AORB}
	NUCLEI		= ALL H  {AISO, ADIP, AORB}
	NUCLEI		= ALL F  {AISO, ADIP, AORB}
	NUCLEI		= ALL Cl {AISO, ADIP, AORB}
	NUCLEI		= ALL Br {AISO, ADIP, AORB}
	NUCLEI		= ALL I  {AISO, ADIP, AORB}
END

%NBO
	NBOKEYLIST = "$NBO NBO NPA AONBO=C PRINT=1 ARCHIVE $END"
END
