# Formula: C-I-Cl-H_radical

! UKS NORI TightSCF PBE0 aug-cc-PVTZ-J xyzfile opt NOPOP
%base "C-I-Cl-H_radical_opt" 

* xyz 0 2
C	-0.151	0.251	0.358
I	1.802	-0.503	-0.075
Cl	-1.354	-0.963	-0.099
H	-0.297	1.215	-0.184
*

$new_job
! UKS NORI PBE0 aug-cc-PVTZ-J NBO
%base "C-I-Cl-H_radical_EPR"

*xyzfile 0 2

%EPRNMR
	GTENSOR		TRUE
	NUCLEI		= ALL C  {AISO, ADIP, AORB}
	NUCLEI		= ALL H  {AISO, ADIP, AORB}
	NUCLEI		= ALL F  {AISO, ADIP, AORB}
	NUCLEI		= ALL Cl {AISO, ADIP, AORB}
	NUCLEI		= ALL Br {AISO, ADIP, AORB}
	NUCLEI		= ALL I  {AISO, ADIP, AORB}
END

%NBO
	NBOKEYLIST = "$NBO NBO NPA AONBO=C PRINT=1 ARCHIVE $END"
END
