# Formula: C-I-Cl-Cl_radical

! UKS NORI TightSCF PBE0 aug-cc-PVTZ-J xyzfile opt NOPOP
%base "C-I-Cl-Cl_radical_opt" 

* xyz 0 2
C	-0.103	0.007	0.472
I	1.945	-0.018	-0.135
Cl	-0.915	-1.439	-0.167
Cl	-0.926	1.450	-0.170
*

$new_job
! UKS NORI PBE0 aug-cc-PVTZ-J NBO
%base "C-I-Cl-Cl_radical_EPR"

*xyzfile 0 2

%EPRNMR
	GTENSOR		TRUE
	NUCLEI		= ALL C  {AISO, ADIP, AORB}
	NUCLEI		= ALL H  {AISO, ADIP, AORB}
	NUCLEI		= ALL F  {AISO, ADIP, AORB}
	NUCLEI		= ALL Cl {AISO, ADIP, AORB}
	NUCLEI		= ALL Br {AISO, ADIP, AORB}
	NUCLEI		= ALL I  {AISO, ADIP, AORB}
END

%NBO
	NBOKEYLIST = "$NBO NBO NPA AONBO=C PRINT=1 ARCHIVE $END"
END
