# Formula: C-I-Br-Cl_radical

! UKS NORI TightSCF PBE0 aug-cc-PVTZ-J xyzfile opt NOPOP
%base "C-I-Br-Cl_radical_opt" 

* xyz 0 2
C	-0.084	0.061	0.515
I	1.899	-0.397	-0.148
Br	-1.279	-1.281	-0.173
Cl	-0.535	1.618	-0.193
*

$new_job
! UKS NORI PBE0 aug-cc-PVTZ-J NBO
%base "C-I-Br-Cl_radical_EPR"

*xyzfile 0 2

%EPRNMR
	GTENSOR		TRUE
	NUCLEI		= ALL C  {AISO, ADIP, AORB}
	NUCLEI		= ALL H  {AISO, ADIP, AORB}
	NUCLEI		= ALL F  {AISO, ADIP, AORB}
	NUCLEI		= ALL Cl {AISO, ADIP, AORB}
	NUCLEI		= ALL Br {AISO, ADIP, AORB}
	NUCLEI		= ALL I  {AISO, ADIP, AORB}
END

%NBO
	NBOKEYLIST = "$NBO NBO NPA AONBO=C PRINT=1 ARCHIVE $END"
END
