# Formula: C-I-F-H_radical

! UKS NORI TightSCF PBE0 aug-cc-PVTZ-J xyzfile opt NOPOP
%base "C-I-F-H_radical_opt" 

* xyz 0 2
C	-0.263	0.109	0.374
I	1.809	-0.179	-0.071
F	-0.975	-0.963	-0.130
H	-0.572	1.034	-0.173
*

$new_job
! UKS NORI PBE0 aug-cc-PVTZ-J NBO
%base "C-I-F-H_radical_EPR"

*xyzfile 0 2

%EPRNMR
	GTENSOR		TRUE
	NUCLEI		= ALL C  {AISO, ADIP, AORB}
	NUCLEI		= ALL H  {AISO, ADIP, AORB}
	NUCLEI		= ALL F  {AISO, ADIP, AORB}
	NUCLEI		= ALL Cl {AISO, ADIP, AORB}
	NUCLEI		= ALL Br {AISO, ADIP, AORB}
	NUCLEI		= ALL I  {AISO, ADIP, AORB}
END

%NBO
	NBOKEYLIST = "$NBO NBO NPA AONBO=C PRINT=1 ARCHIVE $END"
END
