4
Coordinates from ORCA-job C-Cl-F-H_radical_opt E -598.459103280046
  C      -0.144000      0.109000      0.357000
  Cl      1.544000     -0.231000     -0.084000
  F      -0.935000     -0.920000     -0.115000
  H      -0.465000      1.042000     -0.158000
4
Coordinates from ORCA-job C-Cl-F-H_radical_opt E -598.466927958796
  C      -0.134572      0.097582      0.282726
  Cl      1.541177     -0.229339     -0.063965
  F      -0.937244     -0.918994     -0.089767
  H      -0.469361      1.050751     -0.128994
4
Coordinates from ORCA-job C-Cl-F-H_radical_opt E -598.469185950867
  C      -0.123894      0.086873      0.223859
  Cl      1.525396     -0.230710     -0.047633
  F      -0.927687     -0.913738     -0.069716
  H      -0.473815      1.057575     -0.106510
4
Coordinates from ORCA-job C-Cl-F-H_radical_opt E -598.469316951855
  C      -0.120552      0.087010      0.213086
  Cl      1.530280     -0.231240     -0.044407
  F      -0.932949     -0.917815     -0.066450
  H      -0.476778      1.062046     -0.102229
4
Coordinates from ORCA-job C-Cl-F-H_radical_opt E -598.469341910814
  C      -0.117803      0.088288      0.206689
  Cl      1.531218     -0.232618     -0.042440
  F      -0.933958     -0.918722     -0.064732
  H      -0.479457      1.063052     -0.099517
4
Coordinates from ORCA-job C-Cl-F-H_radical_opt E -598.469345399506
  C      -0.116663      0.089139      0.205696
  Cl      1.531273     -0.233825     -0.042048
  F      -0.933430     -0.918476     -0.064601
  H      -0.481181      1.063162     -0.099048
4
Coordinates from ORCA-job C-Cl-F-H_radical_opt E -598.469346377228
  C      -0.116065      0.089694      0.206041
  Cl      1.531254     -0.234651     -0.042062
  F      -0.932867     -0.918005     -0.064831
  H      -0.482322      1.062962     -0.099148
4
Coordinates from ORCA-job C-Cl-F-H_radical_opt E -598.469346439682
  C      -0.116008      0.089733      0.206337
  Cl      1.531236     -0.234733     -0.042130
  F      -0.932765     -0.917822     -0.064939
  H      -0.482463      1.062822     -0.099269
