4
Coordinates from ORCA-job C-F-F-F_radical_opt E -337.371334963043
  C      -0.005000     -0.010000      0.351000
  F      -0.767000     -1.057000     -0.119000
  F      -0.519000      1.180000     -0.115000
  F       1.291000     -0.113000     -0.116000
4
Coordinates from ORCA-job C-F-F-F_radical_opt E -337.382381521050
  C      -0.002058     -0.004032      0.311328
  F      -0.739145     -1.024315     -0.106963
  F      -0.515051      1.150102     -0.100995
  F       1.256255     -0.121755     -0.102370
4
Coordinates from ORCA-job C-F-F-F_radical_opt E -337.383111385224
  C      -0.000570     -0.001208      0.292279
  F      -0.729548     -1.013800     -0.101203
  F      -0.513802      1.140146     -0.094275
  F       1.243921     -0.125138     -0.095801
4
Coordinates from ORCA-job C-F-F-F_radical_opt E -337.383152314299
  C      -0.000626     -0.001264      0.295389
  F      -0.731550     -1.016295     -0.102237
  F      -0.514357      1.142378     -0.095309
  F       1.246533     -0.124819     -0.096842
4
Coordinates from ORCA-job C-F-F-F_radical_opt E -337.383152662168
  C      -0.000524     -0.001070      0.295616
  F      -0.731346     -1.016090     -0.102357
  F      -0.514295      1.142062     -0.095357
  F       1.246166     -0.124902     -0.096901
