4
Coordinates from ORCA-job C-Cl-F-F_radical_opt E -697.649672145203
  C      -0.136000     -0.007000      0.385000
  Cl      1.584000     -0.057000     -0.098000
  F      -0.654000      1.166000     -0.140000
  F      -0.794000     -1.102000     -0.146000
4
Coordinates from ORCA-job C-Cl-F-F_radical_opt E -697.661577604321
  C      -0.117474     -0.000836      0.316919
  Cl      1.586272     -0.069442     -0.076453
  F      -0.677282      1.133056     -0.115965
  F      -0.791516     -1.062778     -0.123501
4
Coordinates from ORCA-job C-Cl-F-F_radical_opt E -697.662927188194
  C      -0.106920      0.002605      0.289036
  Cl      1.575033     -0.073802     -0.067306
  F      -0.682286      1.107687     -0.106109
  F      -0.785826     -1.036491     -0.114621
4
Coordinates from ORCA-job C-Cl-F-F_radical_opt E -697.663056179878
  C      -0.105775      0.002872      0.287603
  Cl      1.579047     -0.074070     -0.066646
  F      -0.684463      1.115786     -0.105634
  F      -0.788808     -1.044588     -0.114323
4
Coordinates from ORCA-job C-Cl-F-F_radical_opt E -697.663065156703
  C      -0.104446      0.003331      0.288600
  Cl      1.577402     -0.074510     -0.066726
  F      -0.684735      1.115178     -0.106009
  F      -0.788222     -1.043999     -0.114866
4
Coordinates from ORCA-job C-Cl-F-F_radical_opt E -697.663066899006
  C      -0.103303      0.003685      0.288184
  Cl      1.576782     -0.074865     -0.066431
  F      -0.685300      1.114913     -0.105882
  F      -0.788179     -1.043734     -0.114871
4
Coordinates from ORCA-job C-Cl-F-F_radical_opt E -697.663066903238
  C      -0.103297      0.003684      0.288204
  Cl      1.576829     -0.074866     -0.066434
  F      -0.685325      1.114921     -0.105890
  F      -0.788206     -1.043739     -0.114879
