4
Coordinates from ORCA-job C-H-H-H_radical_opt E -39.791968768322
  C       0.000000     -0.001000      0.245000
  H       1.026000     -0.238000     -0.082000
  H      -0.718000     -0.774000     -0.082000
  H      -0.308000      1.012000     -0.081000
4
Coordinates from ORCA-job C-H-H-H_radical_opt E -39.797117971162
  C      -0.001730      0.000118      0.174505
  H       1.033240     -0.238791     -0.058894
  H      -0.722991     -0.779678     -0.058396
  H      -0.308518      1.017350     -0.057216
4
Coordinates from ORCA-job C-H-H-H_radical_opt E -39.799660409150
  C      -0.001899      0.000238      0.096409
  H       1.041978     -0.240688     -0.033011
  H      -0.729016     -0.785785     -0.032301
  H      -0.311063      1.025235     -0.031096
4
Coordinates from ORCA-job C-H-H-H_radical_opt E -39.800339518212
  C      -0.000862     -0.000056      0.046143
  H       1.048574     -0.242247     -0.016258
  H      -0.733740     -0.788992     -0.015546
  H      -0.313973      1.030295     -0.014339
4
Coordinates from ORCA-job C-H-H-H_radical_opt E -39.800507944823
  C       0.000044     -0.000259      0.011848
  H       1.051225     -0.242826     -0.004818
  H      -0.735694     -0.789236     -0.004119
  H      -0.315575      1.031321     -0.002911
4
Coordinates from ORCA-job C-H-H-H_radical_opt E -39.800519517298
  C       0.000259     -0.000314      0.000910
  H       1.051829     -0.242964     -0.001170
  H      -0.736142     -0.789305     -0.000474
  H      -0.315946      1.031583      0.000734
4
Coordinates from ORCA-job C-H-H-H_radical_opt E -39.800519632229
  C       0.000187     -0.000296      0.000067
  H       1.051830     -0.242963     -0.000889
  H      -0.736138     -0.789446     -0.000193
  H      -0.315880      1.031705      0.001015
