4
Coordinates from ORCA-job C-Cl-Cl-H_radical_opt E -958.750463124151
  C       0.004000      0.210000      0.354000
  Cl      1.458000     -0.695000     -0.093000
  Cl     -1.454000     -0.704000     -0.091000
  H      -0.008000      1.190000     -0.171000
4
Coordinates from ORCA-job C-Cl-Cl-H_radical_opt E -958.757930775072
  C       0.001201      0.185139      0.274755
  Cl      1.466333     -0.681252     -0.069875
  Cl     -1.462912     -0.692976     -0.067153
  H      -0.004622      1.190089     -0.138727
4
Coordinates from ORCA-job C-Cl-Cl-H_radical_opt E -958.761193243663
  C      -0.001357      0.158719      0.193665
  Cl      1.453252     -0.670198     -0.045935
  Cl     -1.448609     -0.682011     -0.042688
  H      -0.003286      1.194489     -0.106043
4
Coordinates from ORCA-job C-Cl-Cl-H_radical_opt E -958.761500626516
  C      -0.001129      0.153789      0.167274
  Cl      1.460396     -0.671971     -0.038173
  Cl     -1.455385     -0.683220     -0.034948
  H      -0.003883      1.202402     -0.095153
4
Coordinates from ORCA-job C-Cl-Cl-H_radical_opt E -958.761602483209
  C      -0.000704      0.152290      0.144576
  Cl      1.464005     -0.673613     -0.031664
  Cl     -1.458928     -0.684515     -0.028496
  H      -0.004373      1.206837     -0.085416
4
Coordinates from ORCA-job C-Cl-Cl-H_radical_opt E -958.761615681203
  C      -0.000492      0.152288      0.134897
  Cl      1.464025     -0.674926     -0.028905
  Cl     -1.459014     -0.685772     -0.025767
  H      -0.004520      1.209411     -0.081225
4
Coordinates from ORCA-job C-Cl-Cl-H_radical_opt E -958.761616962911
  C      -0.000420      0.152583      0.131693
  Cl      1.463711     -0.675646     -0.028000
  Cl     -1.458723     -0.686474     -0.024873
  H      -0.004568      1.210538     -0.079820
4
Coordinates from ORCA-job C-Cl-Cl-H_radical_opt E -958.761617018749
  C      -0.000416      0.152737      0.131320
  Cl      1.463555     -0.675848     -0.027898
  Cl     -1.458564     -0.686670     -0.024772
  H      -0.004576      1.210782     -0.079649
