# Formula: C-Cl-Cl-H_radical

! UKS NORI TightSCF PBE0 aug-cc-PVTZ-J xyzfile opt NOPOP
%base "C-Cl-Cl-H_radical_opt" 

* xyz 0 2
C	0.004	0.210	0.354
Cl	1.458	-0.695	-0.093
Cl	-1.454	-0.704	-0.091
H	-0.008	1.190	-0.171
*

$new_job
! UKS NORI PBE0 aug-cc-PVTZ-J NBO
%base "C-Cl-Cl-H_radical_EPR"

*xyzfile 0 2

%EPRNMR
	GTENSOR		TRUE
	NUCLEI		= ALL C  {AISO, ADIP, AORB}
	NUCLEI		= ALL H  {AISO, ADIP, AORB}
	NUCLEI		= ALL F  {AISO, ADIP, AORB}
	NUCLEI		= ALL Cl {AISO, ADIP, AORB}
	NUCLEI		= ALL Br {AISO, ADIP, AORB}
	NUCLEI		= ALL I  {AISO, ADIP, AORB}
END

%NBO
	NBOKEYLIST = "$NBO NBO NPA AONBO=C PRINT=1 ARCHIVE $END"
END
