4
Coordinates from ORCA-job C-F-H-H_radical_opt E -138.975410346831
  C      -0.079000      0.017000      0.303000
  F       1.239000     -0.020000     -0.083000
  H      -0.570000     -0.895000     -0.106000
  H      -0.590000      0.898000     -0.113000
4
Coordinates from ORCA-job C-F-H-H_radical_opt E -138.982420597729
  C      -0.083658      0.006336      0.231881
  F       1.235015     -0.010201     -0.064569
  H      -0.572329     -0.921738     -0.078077
  H      -0.579028      0.925603     -0.088235
4
Coordinates from ORCA-job C-F-H-H_radical_opt E -138.984813613882
  C      -0.087874      0.001257      0.172366
  F       1.223423     -0.003715     -0.049280
  H      -0.569296     -0.941063     -0.055303
  H      -0.566253      0.943520     -0.066783
4
Coordinates from ORCA-job C-F-H-H_radical_opt E -138.985202839336
  C      -0.089993      0.000514      0.144734
  F       1.226103     -0.002029     -0.042144
  H      -0.571012     -0.950701     -0.044937
  H      -0.565098      0.952216     -0.056653
4
Coordinates from ORCA-job C-F-H-H_radical_opt E -138.985323600455
  C      -0.091915      0.000376      0.124419
  F       1.229399     -0.002117     -0.036924
  H      -0.571600     -0.954962     -0.037353
  H      -0.565884      0.956702     -0.049142
4
Coordinates from ORCA-job C-F-H-H_radical_opt E -138.985342244571
  C      -0.092465      0.000640      0.114627
  F       1.230680     -0.002555     -0.034372
  H      -0.571626     -0.956741     -0.033745
  H      -0.566588      0.958655     -0.045511
4
Coordinates from ORCA-job C-F-H-H_radical_opt E -138.985344490846
  C      -0.092408      0.000812      0.110720
  F       1.231102     -0.002877     -0.033329
  H      -0.571608     -0.957208     -0.032324
  H      -0.567085      0.959273     -0.044068
4
Coordinates from ORCA-job C-F-H-H_radical_opt E -138.985344728236
  C      -0.092219      0.000880      0.109762
  F       1.231268     -0.002992     -0.033059
  H      -0.571695     -0.957187     -0.031985
  H      -0.567355      0.959299     -0.043718
