4
Coordinates from ORCA-job C-Cl-Cl-F_radical_opt E -1057.936610699467
  C       0.000000      0.106000      0.397000
  Cl      1.494000     -0.703000     -0.120000
  Cl     -1.447000     -0.772000     -0.119000
  F      -0.047000      1.369000     -0.159000
4
Coordinates from ORCA-job C-Cl-Cl-F_radical_opt E -1057.944917095671
  C      -0.002959      0.098471      0.309213
  Cl      1.494734     -0.692499     -0.093333
  Cl     -1.453957     -0.772916     -0.091240
  F      -0.037818      1.366944     -0.125640
4
Coordinates from ORCA-job C-Cl-Cl-F_radical_opt E -1057.946377633774
  C      -0.003088      0.094059      0.269852
  Cl      1.476971     -0.679790     -0.081223
  Cl     -1.438459     -0.761802     -0.079036
  F      -0.035423      1.347534     -0.110593
4
Coordinates from ORCA-job C-Cl-Cl-F_radical_opt E -1057.946477018047
  C      -0.002634      0.092275      0.266468
  Cl      1.481536     -0.683577     -0.079929
  Cl     -1.441986     -0.764225     -0.077858
  F      -0.036916      1.355526     -0.109681
4
Coordinates from ORCA-job C-Cl-Cl-F_radical_opt E -1057.946484040401
  C      -0.002437      0.090786      0.264715
  Cl      1.481453     -0.683279     -0.079247
  Cl     -1.441817     -0.763627     -0.077219
  F      -0.037199      1.356120     -0.109249
4
Coordinates from ORCA-job C-Cl-Cl-F_radical_opt E -1057.946485552296
  C      -0.002320      0.089613      0.264216
  Cl      1.481514     -0.682598     -0.078989
  Cl     -1.441921     -0.762883     -0.076983
  F      -0.037273      1.355867     -0.109244
4
Coordinates from ORCA-job C-Cl-Cl-F_radical_opt E -1057.946485616611
  C      -0.002313      0.089421      0.264311
  Cl      1.481661     -0.682382     -0.079004
  Cl     -1.442097     -0.762700     -0.076997
  F      -0.037251      1.355661     -0.109310
